10131321
  -OEChem-02082320272D

 38 39  0     0  0  0  0  0  0999 V2000
    3.7320    3.1550    0.0000 O   0  0  0  0  0  0  0  0  0  0  0  0
    2.8660   -4.3450    0.0000 O   0  0  0  0  0  0  0  0  0  0  0  0
    5.4641    3.1550    0.0000 N   0  0  0  0  0  0  0  0  0  0  0  0
    7.1962    4.1550    0.0000 C   0  0  0  0  0  0  0  0  0  0  0  0
    6.3301    4.6550    0.0000 C   0  0  0  0  0  0  0  0  0  0  0  0
    7.1962    3.1550    0.0000 C   0  0  0  0  0  0  0  0  0  0  0  0
    5.4641    4.1550    0.0000 C   0  0  0  0  0  0  0  0  0  0  0  0
    6.3301    2.6550    0.0000 C   0  0  0  0  0  0  0  0  0  0  0  0
    4.5981    2.6550    0.0000 C   0  0  0  0  0  0  0  0  0  0  0  0
    4.5981    1.6550    0.0000 C   0  0  0  0  0  0  0  0  0  0  0  0
    3.7320    1.1550    0.0000 C   0  0  0  0  0  0  0  0  0  0  0  0
    3.7320    0.1550    0.0000 C   0  0  0  0  0  0  0  0  0  0  0  0
    2.8660   -0.3450    0.0000 C   0  0  0  0  0  0  0  0  0  0  0  0
    2.8660   -1.3450    0.0000 C   0  0  0  0  0  0  0  0  0  0  0  0
    2.0000   -1.8450    0.0000 C   0  0  0  0  0  0  0  0  0  0  0  0
    3.7320   -1.8450    0.0000 C   0  0  0  0  0  0  0  0  0  0  0  0
    2.0000   -2.8450    0.0000 C   0  0  0  0  0  0  0  0  0  0  0  0
    3.7320   -2.8450    0.0000 C   0  0  0  0  0  0  0  0  0  0  0  0
    2.8660   -3.3450    0.0000 C   0  0  0  0  0  0  0  0  0  0  0  0
    7.8067    4.0473    0.0000 H   0  0  0  0  0  0  0  0  0  0  0  0
    7.4082    4.7376    0.0000 H   0  0  0  0  0  0  0  0  0  0  0  0
    6.7287    5.1300    0.0000 H   0  0  0  0  0  0  0  0  0  0  0  0
    5.9316    5.1300    0.0000 H   0  0  0  0  0  0  0  0  0  0  0  0
    7.4082    2.5724    0.0000 H   0  0  0  0  0  0  0  0  0  0  0  0
    7.8067    3.2627    0.0000 H   0  0  0  0  0  0  0  0  0  0  0  0
    5.2520    4.7376    0.0000 H   0  0  0  0  0  0  0  0  0  0  0  0
    4.8535    4.0473    0.0000 H   0  0  0  0  0  0  0  0  0  0  0  0
    5.9316    2.1800    0.0000 H   0  0  0  0  0  0  0  0  0  0  0  0
    6.7287    2.1800    0.0000 H   0  0  0  0  0  0  0  0  0  0  0  0
    5.1350    1.3450    0.0000 H   0  0  0  0  0  0  0  0  0  0  0  0
    3.1951    1.4650    0.0000 H   0  0  0  0  0  0  0  0  0  0  0  0
    4.2690   -0.1550    0.0000 H   0  0  0  0  0  0  0  0  0  0  0  0
    2.3291   -0.0350    0.0000 H   0  0  0  0  0  0  0  0  0  0  0  0
    1.4631   -1.5350    0.0000 H   0  0  0  0  0  0  0  0  0  0  0  0
    4.2690   -1.5350    0.0000 H   0  0  0  0  0  0  0  0  0  0  0  0
    1.4631   -3.1550    0.0000 H   0  0  0  0  0  0  0  0  0  0  0  0
    4.2690   -3.1550    0.0000 H   0  0  0  0  0  0  0  0  0  0  0  0
    2.3291   -4.6550    0.0000 H   0  0  0  0  0  0  0  0  0  0  0  0
  1  9  2  0  0  0  0
  2 19  1  0  0  0  0
  2 38  1  0  0  0  0
  3  7  1  0  0  0  0
  3  8  1  0  0  0  0
  3  9  1  0  0  0  0
  4  5  1  0  0  0  0
  4  6  1  0  0  0  0
  4 20  1  0  0  0  0
  4 21  1  0  0  0  0
  5  7  1  0  0  0  0
  5 22  1  0  0  0  0
  5 23  1  0  0  0  0
  6  8  1  0  0  0  0
  6 24  1  0  0  0  0
  6 25  1  0  0  0  0
  7 26  1  0  0  0  0
  7 27  1  0  0  0  0
  8 28  1  0  0  0  0
  8 29  1  0  0  0  0
  9 10  1  0  0  0  0
 10 11  2  0  0  0  0
 10 30  1  0  0  0  0
 11 12  1  0  0  0  0
 11 31  1  0  0  0  0
 12 13  2  0  0  0  0
 12 32  1  0  0  0  0
 13 14  1  0  0  0  0
 13 33  1  0  0  0  0
 14 15  2  0  0  0  0
 14 16  1  0  0  0  0
 15 17  1  0  0  0  0
 15 34  1  0  0  0  0
 16 18  2  0  0  0  0
 16 35  1  0  0  0  0
 17 19  2  0  0  0  0
 17 36  1  0  0  0  0
 18 19  1  0  0  0  0
 18 37  1  0  0  0  0
M  END
> <PUBCHEM_COMPOUND_CID>
10131321

> <PUBCHEM_COMPOUND_CANONICALIZED>
1

> <PUBCHEM_CACTVS_COMPLEXITY>
335

> <PUBCHEM_CACTVS_HBOND_ACCEPTOR>
2

> <PUBCHEM_CACTVS_HBOND_DONOR>
1

> <PUBCHEM_CACTVS_ROTATABLE_BOND>
3

> <PUBCHEM_CACTVS_SUBSKEYS>
AAADceB6MAAAAAAAAAAAAAAAAAAAAAAAAAA8QAAAAAAAAAABAAAAHgAACAAADATBmAQwBoMAAgCIAiFSEACCAAAgIAAIiAAOCMgIJiKCkRKEcAAkxhGImYeQwAAOIAAAAAAAAABAAAAAAAAAAAAAAAAAAA==

> <PUBCHEM_IUPAC_OPENEYE_NAME>
(2E,4E)-5-(4-hydroxyphenyl)-1-(1-piperidyl)penta-2,4-dien-1-one

> <PUBCHEM_IUPAC_CAS_NAME>
(2E,4E)-5-(4-hydroxyphenyl)-1-(1-piperidinyl)-1-penta-2,4-dienone

> <PUBCHEM_IUPAC_NAME_MARKUP>
(2<I>E</I>,4<I>E</I>)-5-(4-hydroxyphenyl)-1-piperidin-1-ylpenta-2,4-dien-1-one

> <PUBCHEM_IUPAC_NAME>
(2E,4E)-5-(4-hydroxyphenyl)-1-piperidin-1-ylpenta-2,4-dien-1-one

> <PUBCHEM_IUPAC_SYSTEMATIC_NAME>
(2E,4E)-5-(4-hydroxyphenyl)-1-piperidin-1-yl-penta-2,4-dien-1-one

> <PUBCHEM_IUPAC_TRADITIONAL_NAME>
(2E,4E)-5-(4-hydroxyphenyl)-1-piperidino-penta-2,4-dien-1-one

> <PUBCHEM_IUPAC_INCHI>
InChI=1S/C16H19NO2/c18-15-10-8-14(9-11-15)6-2-3-7-16(19)17-12-4-1-5-13-17/h2-3,6-11,18H,1,4-5,12-13H2/b6-2+,7-3+

> <PUBCHEM_IUPAC_INCHIKEY>
QDAARMDLSCDBFU-YPCIICBESA-N

> <PUBCHEM_XLOGP3>
3

> <PUBCHEM_EXACT_MASS>
257.141578849

> <PUBCHEM_MOLECULAR_FORMULA>
C16H19NO2

> <PUBCHEM_MOLECULAR_WEIGHT>
257.33

> <PUBCHEM_OPENEYE_CAN_SMILES>
C1CCN(CC1)C(=O)C=CC=CC2=CC=C(C=C2)O

> <PUBCHEM_OPENEYE_ISO_SMILES>
C1CCN(CC1)C(=O)/C=C/C=C/C2=CC=C(C=C2)O

> <PUBCHEM_CACTVS_TPSA>
40.5

> <PUBCHEM_MONOISOTOPIC_WEIGHT>
257.141578849

> <PUBCHEM_TOTAL_CHARGE>
0

> <PUBCHEM_HEAVY_ATOM_COUNT>
19

> <PUBCHEM_ATOM_DEF_STEREO_COUNT>
0

> <PUBCHEM_ATOM_UDEF_STEREO_COUNT>
0

> <PUBCHEM_BOND_DEF_STEREO_COUNT>
2

> <PUBCHEM_BOND_UDEF_STEREO_COUNT>
0

> <PUBCHEM_ISOTOPIC_ATOM_COUNT>
0

> <PUBCHEM_COMPONENT_COUNT>
1

> <PUBCHEM_CACTVS_TAUTO_COUNT>
6

> <PUBCHEM_COORDINATE_TYPE>
1
5
255

> <PUBCHEM_BONDANNOTATIONS>
14  15  8
14  16  8
15  17  8
16  18  8
17  19  8
18  19  8

$$$$
