102333899
  -OEChem-02132300352D

 76 79  0     1  0  0  0  0  0999 V2000
    6.8671   -2.5950    0.0000 O   0  0  0  0  0  0  0  0  0  0  0  0
    7.8376   -1.1005    0.0000 O   0  0  0  0  0  0  0  0  0  0  0  0
    5.1350   -0.5950    0.0000 O   0  0  0  0  0  0  0  0  0  0  0  0
   10.1818   -1.2586    0.0000 O   0  0  0  0  0  0  0  0  0  0  0  0
    8.8546   -3.4799    0.0000 O   0  0  0  0  0  0  0  0  0  0  0  0
    5.1350   -3.5950    0.0000 O   0  0  0  0  0  0  0  0  0  0  0  0
    6.8671   -0.5950    0.0000 O   0  0  0  0  0  0  0  0  0  0  0  0
    3.4030   -2.5950    0.0000 O   0  0  0  0  0  0  0  0  0  0  0  0
   11.0100   -2.1187    0.0000 O   0  0  0  0  0  0  0  0  0  0  0  0
    2.5369   -1.0950    0.0000 O   0  0  0  0  0  0  0  0  0  0  0  0
   11.5452   -3.7660    0.0000 O   0  0  0  0  0  0  0  0  0  0  0  0
    8.5991    2.4050    0.0000 O   0  0  0  0  0  0  0  0  0  0  0  0
    6.8671    3.4050    0.0000 O   0  0  0  0  0  0  0  0  0  0  0  0
   14.0710   -0.2135    0.0000 O   0  0  0  0  0  0  0  0  0  0  0  0
   15.5573   -1.5518    0.0000 O   0  0  0  0  0  0  0  0  0  0  0  0
    9.3158   -1.7586    0.0000 C   0  0  1  0  0  0  0  0  0  0  0  0
    6.0010   -2.0950    0.0000 C   0  0  2  0  0  0  0  0  0  0  0  0
    8.6466   -2.5017    0.0000 C   0  0  2  0  0  0  0  0  0  0  0  0
    7.7331   -2.0950    0.0000 C   0  0  2  0  0  0  0  0  0  0  0  0
    5.1350   -2.5950    0.0000 C   0  0  2  0  0  0  0  0  0  0  0  0
    4.2690   -2.0950    0.0000 C   0  0  1  0  0  0  0  0  0  0  0  0
    6.0010   -1.0950    0.0000 C   0  0  1  0  0  0  0  0  0  0  0  0
    8.8158   -0.8926    0.0000 C   0  0  0  0  0  0  0  0  0  0  0  0
    4.2690   -1.0950    0.0000 C   0  0  1  0  0  0  0  0  0  0  0  0
   10.0589   -2.4277    0.0000 C   0  0  0  0  0  0  0  0  0  0  0  0
    3.4030   -0.5950    0.0000 C   0  0  0  0  0  0  0  0  0  0  0  0
    6.8671    0.4050    0.0000 C   0  0  0  0  0  0  0  0  0  0  0  0
   11.7531   -2.7878    0.0000 C   0  0  0  0  0  0  0  0  0  0  0  0
    7.7331    0.9050    0.0000 C   0  0  0  0  0  0  0  0  0  0  0  0
    6.0010    0.9050    0.0000 C   0  0  0  0  0  0  0  0  0  0  0  0
   12.7042   -2.4788    0.0000 C   0  0  0  0  0  0  0  0  0  0  0  0
    7.7331    1.9050    0.0000 C   0  0  0  0  0  0  0  0  0  0  0  0
    6.0010    1.9050    0.0000 C   0  0  0  0  0  0  0  0  0  0  0  0
    6.8671    2.4050    0.0000 C   0  0  0  0  0  0  0  0  0  0  0  0
   12.9121   -1.5007    0.0000 C   0  0  0  0  0  0  0  0  0  0  0  0
   13.4473   -3.1479    0.0000 C   0  0  0  0  0  0  0  0  0  0  0  0
   13.8631   -1.1917    0.0000 C   0  0  0  0  0  0  0  0  0  0  0  0
   14.3984   -2.8389    0.0000 C   0  0  0  0  0  0  0  0  0  0  0  0
   14.6063   -1.8608    0.0000 C   0  0  0  0  0  0  0  0  0  0  0  0
    8.5991    3.4050    0.0000 C   0  0  0  0  0  0  0  0  0  0  0  0
    6.0010    3.9050    0.0000 C   0  0  0  0  0  0  0  0  0  0  0  0
   15.0221    0.0955    0.0000 C   0  0  0  0  0  0  0  0  0  0  0  0
    6.0010   -2.7150    0.0000 H   0  0  0  0  0  0  0  0  0  0  0  0
    9.2455   -2.6622    0.0000 H   0  0  0  0  0  0  0  0  0  0  0  0
    7.7655   -2.7142    0.0000 H   0  0  0  0  0  0  0  0  0  0  0  0
    4.5981   -2.9050    0.0000 H   0  0  0  0  0  0  0  0  0  0  0  0
    4.2690   -2.7150    0.0000 H   0  0  0  0  0  0  0  0  0  0  0  0
    6.5380   -1.4050    0.0000 H   0  0  0  0  0  0  0  0  0  0  0  0
    9.3822   -0.6404    0.0000 H   0  0  0  0  0  0  0  0  0  0  0  0
    8.6242   -0.3029    0.0000 H   0  0  0  0  0  0  0  0  0  0  0  0
    4.2690   -0.4750    0.0000 H   0  0  0  0  0  0  0  0  0  0  0  0
    9.5703   -2.8094    0.0000 H   0  0  0  0  0  0  0  0  0  0  0  0
   10.3500   -2.9752    0.0000 H   0  0  0  0  0  0  0  0  0  0  0  0
    3.8015   -0.1201    0.0000 H   0  0  0  0  0  0  0  0  0  0  0  0
    3.0044   -0.1201    0.0000 H   0  0  0  0  0  0  0  0  0  0  0  0
   10.1818   -0.6386    0.0000 H   0  0  0  0  0  0  0  0  0  0  0  0
    8.3938   -3.8948    0.0000 H   0  0  0  0  0  0  0  0  0  0  0  0
    4.5981   -3.9050    0.0000 H   0  0  0  0  0  0  0  0  0  0  0  0
    3.4030   -3.2150    0.0000 H   0  0  0  0  0  0  0  0  0  0  0  0
    2.0000   -0.7850    0.0000 H   0  0  0  0  0  0  0  0  0  0  0  0
    8.2700    0.5950    0.0000 H   0  0  0  0  0  0  0  0  0  0  0  0
    5.4641    0.5950    0.0000 H   0  0  0  0  0  0  0  0  0  0  0  0
    5.4641    2.2150    0.0000 H   0  0  0  0  0  0  0  0  0  0  0  0
   12.4513   -1.0858    0.0000 H   0  0  0  0  0  0  0  0  0  0  0  0
   13.3184   -3.7544    0.0000 H   0  0  0  0  0  0  0  0  0  0  0  0
   14.8591   -3.2538    0.0000 H   0  0  0  0  0  0  0  0  0  0  0  0
    9.2191    3.4050    0.0000 H   0  0  0  0  0  0  0  0  0  0  0  0
    8.5991    4.0250    0.0000 H   0  0  0  0  0  0  0  0  0  0  0  0
    7.9791    3.4050    0.0000 H   0  0  0  0  0  0  0  0  0  0  0  0
    6.3110    4.4419    0.0000 H   0  0  0  0  0  0  0  0  0  0  0  0
    5.4641    4.2150    0.0000 H   0  0  0  0  0  0  0  0  0  0  0  0
    5.6910    3.3681    0.0000 H   0  0  0  0  0  0  0  0  0  0  0  0
   16.0181   -1.9666    0.0000 H   0  0  0  0  0  0  0  0  0  0  0  0
   15.2137   -0.4941    0.0000 H   0  0  0  0  0  0  0  0  0  0  0  0
   15.6118    0.2871    0.0000 H   0  0  0  0  0  0  0  0  0  0  0  0
   14.8305    0.6852    0.0000 H   0  0  0  0  0  0  0  0  0  0  0  0
 17  1  1  6  0  0  0
 19  1  1  6  0  0  0
  2 19  1  0  0  0  0
  2 23  1  0  0  0  0
  3 22  1  0  0  0  0
  3 24  1  0  0  0  0
 16  4  1  1  0  0  0
  4 56  1  0  0  0  0
 18  5  1  1  0  0  0
  5 57  1  0  0  0  0
 20  6  1  1  0  0  0
  6 58  1  0  0  0  0
 22  7  1  1  0  0  0
  7 27  1  0  0  0  0
 21  8  1  6  0  0  0
  8 59  1  0  0  0  0
  9 25  1  0  0  0  0
  9 28  1  0  0  0  0
 10 26  1  0  0  0  0
 10 60  1  0  0  0  0
 11 28  2  0  0  0  0
 12 32  1  0  0  0  0
 12 40  1  0  0  0  0
 13 34  1  0  0  0  0
 13 41  1  0  0  0  0
 14 37  1  0  0  0  0
 14 42  1  0  0  0  0
 15 39  1  0  0  0  0
 15 73  1  0  0  0  0
 16 18  1  0  0  0  0
 16 23  1  0  0  0  0
 16 25  1  0  0  0  0
 17 20  1  0  0  0  0
 17 22  1  0  0  0  0
 17 43  1  0  0  0  0
 18 19  1  0  0  0  0
 18 44  1  0  0  0  0
 19 45  1  0  0  0  0
 20 21  1  0  0  0  0
 20 46  1  0  0  0  0
 21 24  1  0  0  0  0
 21 47  1  0  0  0  0
 22 48  1  0  0  0  0
 23 49  1  0  0  0  0
 23 50  1  0  0  0  0
 24 26  1  1  0  0  0
 24 51  1  0  0  0  0
 25 52  1  0  0  0  0
 25 53  1  0  0  0  0
 26 54  1  0  0  0  0
 26 55  1  0  0  0  0
 27 29  2  0  0  0  0
 27 30  1  0  0  0  0
 28 31  1  0  0  0  0
 29 32  1  0  0  0  0
 29 61  1  0  0  0  0
 30 33  2  0  0  0  0
 30 62  1  0  0  0  0
 31 35  2  0  0  0  0
 31 36  1  0  0  0  0
 32 34  2  0  0  0  0
 33 34  1  0  0  0  0
 33 63  1  0  0  0  0
 35 37  1  0  0  0  0
 35 64  1  0  0  0  0
 36 38  2  0  0  0  0
 36 65  1  0  0  0  0
 37 39  2  0  0  0  0
 38 39  1  0  0  0  0
 38 66  1  0  0  0  0
 40 67  1  0  0  0  0
 40 68  1  0  0  0  0
 40 69  1  0  0  0  0
 41 70  1  0  0  0  0
 41 71  1  0  0  0  0
 41 72  1  0  0  0  0
 42 74  1  0  0  0  0
 42 75  1  0  0  0  0
 42 76  1  0  0  0  0
M  END
> <PUBCHEM_COMPOUND_CID>
102333899

> <PUBCHEM_COMPOUND_CANONICALIZED>
1

> <PUBCHEM_CACTVS_COMPLEXITY>
863

> <PUBCHEM_CACTVS_HBOND_ACCEPTOR>
15

> <PUBCHEM_CACTVS_HBOND_DONOR>
6

> <PUBCHEM_CACTVS_ROTATABLE_BOND>
12

> <PUBCHEM_CACTVS_SUBSKEYS>
AAADcfB4PAAAAAAAAAAAAAAAAAAAASAAAAA0YIAAAAAAAAABQAAAGgAACAAADFSwmAMyDoAABgCIAiDSCAACCAAkIAAIiAEGiMgdNzKGNRqieSOlwBUPuYfK7DzOIQABCAAAQABCAAIQAACAAAAAAAAAAA==

> <PUBCHEM_IUPAC_OPENEYE_NAME>
[(3S,4R,5S)-5-[(2S,3R,4S,5S,6R)-2-(3,4-dimethoxyphenoxy)-4,5-dihydroxy-6-(hydroxymethyl)tetrahydropyran-3-yl]oxy-3,4-dihydroxy-tetrahydrofuran-3-yl]methyl 4-hydroxy-3-methoxy-benzoate

> <PUBCHEM_IUPAC_CAS_NAME>
4-hydroxy-3-methoxybenzoic acid [(3S,4R,5S)-5-[[(2S,3R,4S,5S,6R)-2-(3,4-dimethoxyphenoxy)-4,5-dihydroxy-6-(hydroxymethyl)-3-oxanyl]oxy]-3,4-dihydroxy-3-oxolanyl]methyl ester

> <PUBCHEM_IUPAC_NAME_MARKUP>
[(3<I>S</I>,4<I>R</I>,5<I>S</I>)-5-[(2<I>S</I>,3<I>R</I>,4<I>S</I>,5<I>S</I>,6<I>R</I>)-2-(3,4-dimethoxyphenoxy)-4,5-dihydroxy-6-(hydroxymethyl)oxan-3-yl]oxy-3,4-dihydroxyoxolan-3-yl]methyl 4-hydroxy-3-methoxybenzoate

> <PUBCHEM_IUPAC_NAME>
[(3S,4R,5S)-5-[(2S,3R,4S,5S,6R)-2-(3,4-dimethoxyphenoxy)-4,5-dihydroxy-6-(hydroxymethyl)oxan-3-yl]oxy-3,4-dihydroxyoxolan-3-yl]methyl 4-hydroxy-3-methoxybenzoate

> <PUBCHEM_IUPAC_SYSTEMATIC_NAME>
[(3S,4R,5S)-5-[(2S,3R,4S,5S,6R)-2-(3,4-dimethoxyphenoxy)-6-(hydroxymethyl)-4,5-bis(oxidanyl)oxan-3-yl]oxy-3,4-bis(oxidanyl)oxolan-3-yl]methyl 3-methoxy-4-oxidanyl-benzoate

> <PUBCHEM_IUPAC_TRADITIONAL_NAME>
4-hydroxy-3-methoxy-benzoic acid [(3S,4R,5S)-5-[(2S,3R,4S,5S,6R)-2-(3,4-dimethoxyphenoxy)-4,5-dihydroxy-6-methylol-tetrahydropyran-3-yl]oxy-3,4-dihydroxy-tetrahydrofuran-3-yl]methyl ester

> <PUBCHEM_IUPAC_INCHI>
InChI=1S/C27H34O15/c1-35-16-7-5-14(9-18(16)37-3)40-25-22(21(31)20(30)19(10-28)41-25)42-26-23(32)27(34,12-39-26)11-38-24(33)13-4-6-15(29)17(8-13)36-2/h4-9,19-23,25-26,28-32,34H,10-12H2,1-3H3/t19-,20-,21+,22-,23+,25-,26+,27-/m1/s1

> <PUBCHEM_IUPAC_INCHIKEY>
ZSLSMBNUFQUOPJ-DVKXAIPJSA-N

> <PUBCHEM_XLOGP3_AA>
-0.2

> <PUBCHEM_EXACT_MASS>
598.18977037

> <PUBCHEM_MOLECULAR_FORMULA>
C27H34O15

> <PUBCHEM_MOLECULAR_WEIGHT>
598.5

> <PUBCHEM_OPENEYE_CAN_SMILES>
COC1=C(C=C(C=C1)OC2C(C(C(C(O2)CO)O)O)OC3C(C(CO3)(COC(=O)C4=CC(=C(C=C4)O)OC)O)O)OC

> <PUBCHEM_OPENEYE_ISO_SMILES>
COC1=C(C=C(C=C1)O[C@H]2[C@@H]([C@H]([C@@H]([C@H](O2)CO)O)O)O[C@H]3[C@@H]([C@](CO3)(COC(=O)C4=CC(=C(C=C4)O)OC)O)O)OC

> <PUBCHEM_CACTVS_TPSA>
212

> <PUBCHEM_MONOISOTOPIC_WEIGHT>
598.18977037

> <PUBCHEM_TOTAL_CHARGE>
0

> <PUBCHEM_HEAVY_ATOM_COUNT>
42

> <PUBCHEM_ATOM_DEF_STEREO_COUNT>
8

> <PUBCHEM_ATOM_UDEF_STEREO_COUNT>
0

> <PUBCHEM_BOND_DEF_STEREO_COUNT>
0

> <PUBCHEM_BOND_UDEF_STEREO_COUNT>
0

> <PUBCHEM_ISOTOPIC_ATOM_COUNT>
0

> <PUBCHEM_COMPONENT_COUNT>
1

> <PUBCHEM_CACTVS_TAUTO_COUNT>
-1

> <PUBCHEM_COORDINATE_TYPE>
1
5
255

> <PUBCHEM_BONDANNOTATIONS>
17  1  6
19  1  6
24  26  5
27  29  8
27  30  8
29  32  8
30  33  8
31  35  8
31  36  8
32  34  8
33  34  8
35  37  8
36  38  8
37  39  8
38  39  8
16  4  5
18  5  5
20  6  5
22  7  5
21  8  6

$$$$
