11776892
  -OEChem-02092319242D

 40 41  0     1  0  0  0  0  0999 V2000
    5.3539    1.7640    0.0000 O   0  0  0  0  0  0  0  0  0  0  0  0
    7.1246   -1.1183    0.0000 O   0  0  0  0  0  0  0  0  0  0  0  0
    2.1708    0.2481    0.0000 O   0  0  0  0  0  0  0  0  0  0  0  0
    5.3639   -0.2360    0.0000 C   0  0  1  0  0  0  0  0  0  0  0  0
    5.3589    0.7640    0.0000 C   0  0  1  0  0  0  0  0  0  0  0  0
    6.3116   -0.5360    0.0000 C   0  0  2  0  0  0  0  0  0  0  0  0
    6.3036    1.0735    0.0000 C   0  0  0  0  0  0  0  0  0  0  0  0
    6.8912    0.2717    0.0000 C   0  0  0  0  0  0  0  0  0  0  0  0
    4.5852   -0.8633    0.0000 C   0  0  0  0  0  0  0  0  0  0  0  0
    4.5740    1.3836    0.0000 C   0  0  0  0  0  0  0  0  0  0  0  0
    6.0090   -1.4891    0.0000 C   0  0  0  0  0  0  0  0  0  0  0  0
    3.6092   -0.6457    0.0000 C   0  0  0  0  0  0  0  0  0  0  0  0
    3.6002    1.1562    0.0000 C   0  0  0  0  0  0  0  0  0  0  0  0
    4.7916    2.3596    0.0000 C   0  0  0  0  0  0  0  0  0  0  0  0
    3.1708    0.2531    0.0000 C   0  0  0  0  0  0  0  0  0  0  0  0
    2.9896   -1.4306    0.0000 C   0  0  0  0  0  0  0  0  0  0  0  0
    3.3595   -2.3596    0.0000 C   0  0  0  0  0  0  0  0  0  0  0  0
    2.0000   -1.2865    0.0000 C   0  0  0  0  0  0  0  0  0  0  0  0
    5.5209   -1.0713    0.0000 H   0  0  0  0  0  0  0  0  0  0  0  0
    6.8394    1.3854    0.0000 H   0  0  0  0  0  0  0  0  0  0  0  0
    6.0497    1.6391    0.0000 H   0  0  0  0  0  0  0  0  0  0  0  0
    7.3541   -0.1408    0.0000 H   0  0  0  0  0  0  0  0  0  0  0  0
    7.3500    0.6887    0.0000 H   0  0  0  0  0  0  0  0  0  0  0  0
    4.3190   -1.4233    0.0000 H   0  0  0  0  0  0  0  0  0  0  0  0
    5.0718   -1.2475    0.0000 H   0  0  0  0  0  0  0  0  0  0  0  0
    5.4181   -1.3014    0.0000 H   0  0  0  0  0  0  0  0  0  0  0  0
    5.8214   -2.0800    0.0000 H   0  0  0  0  0  0  0  0  0  0  0  0
    6.5999   -1.6767    0.0000 H   0  0  0  0  0  0  0  0  0  0  0  0
    5.8893    2.0767    0.0000 H   0  0  0  0  0  0  0  0  0  0  0  0
    7.6892   -0.8623    0.0000 H   0  0  0  0  0  0  0  0  0  0  0  0
    3.2112    1.6390    0.0000 H   0  0  0  0  0  0  0  0  0  0  0  0
    5.3968    2.2247    0.0000 H   0  0  0  0  0  0  0  0  0  0  0  0
    4.9266    2.9648    0.0000 H   0  0  0  0  0  0  0  0  0  0  0  0
    4.1865    2.4946    0.0000 H   0  0  0  0  0  0  0  0  0  0  0  0
    2.7835   -2.5890    0.0000 H   0  0  0  0  0  0  0  0  0  0  0  0
    3.5889   -2.9356    0.0000 H   0  0  0  0  0  0  0  0  0  0  0  0
    3.9356   -2.1303    0.0000 H   0  0  0  0  0  0  0  0  0  0  0  0
    2.0894   -0.6730    0.0000 H   0  0  0  0  0  0  0  0  0  0  0  0
    1.3865   -1.1972    0.0000 H   0  0  0  0  0  0  0  0  0  0  0  0
    1.9106   -1.9000    0.0000 H   0  0  0  0  0  0  0  0  0  0  0  0
  5  1  1  6  0  0  0
  1 29  1  0  0  0  0
  6  2  1  6  0  0  0
  2 30  1  0  0  0  0
  3 15  2  0  0  0  0
  4  5  1  0  0  0  0
  4  6  1  0  0  0  0
  4  9  1  0  0  0  0
  4 19  1  6  0  0  0
  5  7  1  0  0  0  0
  5 10  1  0  0  0  0
  6  8  1  0  0  0  0
  6 11  1  0  0  0  0
  7  8  1  0  0  0  0
  7 20  1  0  0  0  0
  7 21  1  0  0  0  0
  8 22  1  0  0  0  0
  8 23  1  0  0  0  0
  9 12  1  0  0  0  0
  9 24  1  0  0  0  0
  9 25  1  0  0  0  0
 10 13  2  0  0  0  0
 10 14  1  0  0  0  0
 11 26  1  0  0  0  0
 11 27  1  0  0  0  0
 11 28  1  0  0  0  0
 12 15  1  0  0  0  0
 12 16  2  0  0  0  0
 13 15  1  0  0  0  0
 13 31  1  0  0  0  0
 14 32  1  0  0  0  0
 14 33  1  0  0  0  0
 14 34  1  0  0  0  0
 16 17  1  0  0  0  0
 16 18  1  0  0  0  0
 17 35  1  0  0  0  0
 17 36  1  0  0  0  0
 17 37  1  0  0  0  0
 18 38  1  0  0  0  0
 18 39  1  0  0  0  0
 18 40  1  0  0  0  0
M  END
> <PUBCHEM_COMPOUND_CID>
11776892

> <PUBCHEM_COMPOUND_CANONICALIZED>
1

> <PUBCHEM_CACTVS_COMPLEXITY>
456

> <PUBCHEM_CACTVS_HBOND_ACCEPTOR>
3

> <PUBCHEM_CACTVS_HBOND_DONOR>
2

> <PUBCHEM_CACTVS_ROTATABLE_BOND>
0

> <PUBCHEM_CACTVS_SUBSKEYS>
AAADceBwMAAAAAAAAAAAAAAAAAAAAYAAAAAAAAAABAAAAACAAAAAGgAACAAADUSAgAACAAAAAgCIAqBSAAAAAAAgAAAACAEAAEgABBIAAQAAUAAFgAAIEQPIzODOgAAAAAAAAAAAAAAAAAAAAYQADAAAAA==

> <PUBCHEM_IUPAC_OPENEYE_NAME>
(3S,3aR,8aR)-3,8a-dihydroxy-5-isopropylidene-3,8-dimethyl-1,2,3a,4-tetrahydroazulen-6-one

> <PUBCHEM_IUPAC_CAS_NAME>
(3S,3aR,8aR)-3,8a-dihydroxy-3,8-dimethyl-5-propan-2-ylidene-1,2,3a,4-tetrahydroazulen-6-one

> <PUBCHEM_IUPAC_NAME_MARKUP>
(3<I>S</I>,3<I>a</I><I>R</I>,8<I>a</I><I>R</I>)-3,8<I>a</I>-dihydroxy-3,8-dimethyl-5-propan-2-ylidene-1,2,3<I>a</I>,4-tetrahydroazulen-6-one

> <PUBCHEM_IUPAC_NAME>
(3S,3aR,8aR)-3,8a-dihydroxy-3,8-dimethyl-5-propan-2-ylidene-1,2,3a,4-tetrahydroazulen-6-one

> <PUBCHEM_IUPAC_SYSTEMATIC_NAME>
(3S,3aR,8aR)-3,8-dimethyl-3,8a-bis(oxidanyl)-5-propan-2-ylidene-1,2,3a,4-tetrahydroazulen-6-one

> <PUBCHEM_IUPAC_TRADITIONAL_NAME>
(3S,3aR,8aR)-3,8a-dihydroxy-5-isopropylidene-3,8-dimethyl-1,2,3a,4-tetrahydroazulen-6-one

> <PUBCHEM_IUPAC_INCHI>
InChI=1S/C15H22O3/c1-9(2)11-8-13-14(4,17)5-6-15(13,18)10(3)7-12(11)16/h7,13,17-18H,5-6,8H2,1-4H3/t13-,14+,15+/m1/s1

> <PUBCHEM_IUPAC_INCHIKEY>
IXQJBPRUTQTCMW-ILXRZTDVSA-N

> <PUBCHEM_XLOGP3_AA>
1.3

> <PUBCHEM_EXACT_MASS>
250.15689456

> <PUBCHEM_MOLECULAR_FORMULA>
C15H22O3

> <PUBCHEM_MOLECULAR_WEIGHT>
250.33

> <PUBCHEM_OPENEYE_CAN_SMILES>
CC1=CC(=O)C(=C(C)C)CC2C1(CCC2(C)O)O

> <PUBCHEM_OPENEYE_ISO_SMILES>
CC1=CC(=O)C(=C(C)C)C[C@H]2[C@@]1(CC[C@]2(C)O)O

> <PUBCHEM_CACTVS_TPSA>
57.5

> <PUBCHEM_MONOISOTOPIC_WEIGHT>
250.15689456

> <PUBCHEM_TOTAL_CHARGE>
0

> <PUBCHEM_HEAVY_ATOM_COUNT>
18

> <PUBCHEM_ATOM_DEF_STEREO_COUNT>
3

> <PUBCHEM_ATOM_UDEF_STEREO_COUNT>
0

> <PUBCHEM_BOND_DEF_STEREO_COUNT>
0

> <PUBCHEM_BOND_UDEF_STEREO_COUNT>
0

> <PUBCHEM_ISOTOPIC_ATOM_COUNT>
0

> <PUBCHEM_COMPONENT_COUNT>
1

> <PUBCHEM_CACTVS_TAUTO_COUNT>
-1

> <PUBCHEM_COORDINATE_TYPE>
1
5
255

> <PUBCHEM_BONDANNOTATIONS>
5  1  6
6  2  6
4  19  6

$$$$
