16145850
  -OEChem-02092319252D

130143  0     1  0  0  0  0  0999 V2000
    9.3200    2.9985    0.0000 O   0  0  0  0  0  0  0  0  0  0  0  0
    7.0490    0.0735    0.0000 O   0  0  0  0  0  0  0  0  0  0  0  0
   10.7300   -0.1478    0.0000 O   0  0  0  0  0  0  0  0  0  0  0  0
    5.3425    1.2981    0.0000 O   0  0  0  0  0  0  0  0  0  0  0  0
   12.7849    3.1120    0.0000 O   0  0  0  0  0  0  0  0  0  0  0  0
    5.2369    1.8432    0.0000 O   0  0  0  0  0  0  0  0  0  0  0  0
   10.1166    5.1583    0.0000 O   0  0  0  0  0  0  0  0  0  0  0  0
    9.6336   -2.7121    0.0000 O   0  0  0  0  0  0  0  0  0  0  0  0
    8.6962   -3.1122    0.0000 O   0  0  0  0  0  0  0  0  0  0  0  0
    7.2802    4.1728    0.0000 O   0  0  0  0  0  0  0  0  0  0  0  0
   11.7288   -0.1024    0.0000 O   0  0  0  0  0  0  0  0  0  0  0  0
    7.7701   -0.2634    0.0000 O   0  0  0  0  0  0  0  0  0  0  0  0
    3.9062    4.3724    0.0000 O   0  0  0  0  0  0  0  0  0  0  0  0
   15.2271    0.4379    0.0000 O   0  0  0  0  0  0  0  0  0  0  0  0
    7.6121   -5.6016    0.0000 O   0  0  0  0  0  0  0  0  0  0  0  0
    5.1981   -2.8472    0.0000 O   0  0  0  0  0  0  0  0  0  0  0  0
   13.8027    5.7592    0.0000 O   0  0  0  0  0  0  0  0  0  0  0  0
    2.7027    1.0255    0.0000 O   0  0  0  0  0  0  0  0  0  0  0  0
   12.3885    7.1734    0.0000 O   0  0  0  0  0  0  0  0  0  0  0  0
    2.5034   -0.9646    0.0000 O   0  0  0  0  0  0  0  0  0  0  0  0
   12.2255   -4.3269    0.0000 O   0  0  0  0  0  0  0  0  0  0  0  0
   14.0128   -3.4294    0.0000 O   0  0  0  0  0  0  0  0  0  0  0  0
   10.1461   -7.2651    0.0000 O   0  0  0  0  0  0  0  0  0  0  0  0
   11.9437   -6.3883    0.0000 O   0  0  0  0  0  0  0  0  0  0  0  0
    7.2160    2.2225    0.0000 C   0  0  2  0  0  0  0  0  0  0  0  0
   11.0944    2.3438    0.0000 C   0  0  2  0  0  0  0  0  0  0  0  0
    8.1012    1.5952    0.0000 C   0  0  0  0  0  0  0  0  0  0  0  0
    9.8734    1.4781    0.0000 C   0  0  0  0  0  0  0  0  0  0  0  0
    6.2336    1.7620    0.0000 C   0  0  2  0  0  0  0  0  0  0  0  0
    9.0443    2.0373    0.0000 C   0  0  0  0  0  0  0  0  0  0  0  0
    8.8841   -0.0258    0.0000 C   0  0  0  0  0  0  0  0  0  0  0  0
   10.6166    4.2923    0.0000 C   0  0  2  0  0  0  0  0  0  0  0  0
    8.0205    0.5566    0.0000 C   0  0  0  0  0  0  0  0  0  0  0  0
   11.3532    3.3097    0.0000 C   0  0  2  0  0  0  0  0  0  0  0  0
    6.1495    0.6802    0.0000 C   0  0  2  0  0  0  0  0  0  0  0  0
    8.8000   -1.1076    0.0000 C   0  0  1  0  0  0  0  0  0  0  0  0
    9.8167    0.4380    0.0000 C   0  0  0  0  0  0  0  0  0  0  0  0
    9.6995   -1.7143    0.0000 C   0  0  2  0  0  0  0  0  0  0  0  0
    6.3529    2.7594    0.0000 C   0  0  0  0  0  0  0  0  0  0  0  0
   12.3661    1.5491    0.0000 C   0  0  0  0  0  0  0  0  0  0  0  0
   10.6710   -1.2312    0.0000 C   0  0  1  0  0  0  0  0  0  0  0  0
    7.8996   -1.5425    0.0000 C   0  0  0  0  0  0  0  0  0  0  0  0
    5.4414    2.3097    0.0000 C   0  0  0  0  0  0  0  0  0  0  0  0
   13.1432    2.1784    0.0000 C   0  0  0  0  0  0  0  0  0  0  0  0
   11.6120    4.2756    0.0000 C   0  0  0  0  0  0  0  0  0  0  0  0
    5.2380    0.2690    0.0000 C   0  0  0  0  0  0  0  0  0  0  0  0
    6.3918    3.7138    0.0000 C   0  0  0  0  0  0  0  0  0  0  0  0
   12.5131    0.5179    0.0000 C   0  0  0  0  0  0  0  0  0  0  0  0
   11.5065   -1.7807    0.0000 C   0  0  0  0  0  0  0  0  0  0  0  0
    7.8260   -2.5398    0.0000 C   0  0  0  0  0  0  0  0  0  0  0  0
    7.0727   -0.9801    0.0000 C   0  0  0  0  0  0  0  0  0  0  0  0
    4.6604    2.8596    0.0000 C   0  0  0  0  0  0  0  0  0  0  0  0
   14.1213    1.8202    0.0000 C   0  0  0  0  0  0  0  0  0  0  0  0
    6.9255   -2.9747    0.0000 C   0  0  0  0  0  0  0  0  0  0  0  0
   12.5780    4.5344    0.0000 C   0  0  0  0  0  0  0  0  0  0  0  0
    4.4261    0.8529    0.0000 C   0  0  0  0  0  0  0  0  0  0  0  0
   10.9049    4.9827    0.0000 C   0  0  0  0  0  0  0  0  0  0  0  0
    5.1384   -0.7261    0.0000 C   0  0  0  0  0  0  0  0  0  0  0  0
    5.5910    4.2345    0.0000 C   0  0  0  0  0  0  0  0  0  0  0  0
   13.4827    0.1371    0.0000 C   0  0  0  0  0  0  0  0  0  0  0  0
    6.8328   -4.0122    0.0000 C   0  0  0  0  0  0  0  0  0  0  0  0
    4.7344    3.8119    0.0000 C   0  0  0  0  0  0  0  0  0  0  0  0
   14.2922    0.7927    0.0000 C   0  0  0  0  0  0  0  0  0  0  0  0
    8.6275   -4.1516    0.0000 C   0  0  1  0  0  0  0  0  0  0  0  0
    7.6896   -4.6046    0.0000 C   0  0  2  0  0  0  0  0  0  0  0  0
    6.1722   -1.4150    0.0000 C   0  0  0  0  0  0  0  0  0  0  0  0
   11.4483   -2.7790    0.0000 C   0  0  0  0  0  0  0  0  0  0  0  0
   12.4001   -1.3320    0.0000 C   0  0  0  0  0  0  0  0  0  0  0  0
    6.0986   -2.4123    0.0000 C   0  0  0  0  0  0  0  0  0  0  0  0
   12.8368    5.5003    0.0000 C   0  0  0  0  0  0  0  0  0  0  0  0
    3.5146    0.4416    0.0000 C   0  0  0  0  0  0  0  0  0  0  0  0
   11.1637    5.9486    0.0000 C   0  0  0  0  0  0  0  0  0  0  0  0
    4.2268   -1.1373    0.0000 C   0  0  0  0  0  0  0  0  0  0  0  0
   12.1297    6.2074    0.0000 C   0  0  0  0  0  0  0  0  0  0  0  0
    3.4149   -0.5534    0.0000 C   0  0  0  0  0  0  0  0  0  0  0  0
   12.2837   -3.3286    0.0000 C   0  0  0  0  0  0  0  0  0  0  0  0
    9.4566   -4.7108    0.0000 C   0  0  0  0  0  0  0  0  0  0  0  0
   13.2356   -1.8816    0.0000 C   0  0  0  0  0  0  0  0  0  0  0  0
   13.1774   -2.8799    0.0000 C   0  0  0  0  0  0  0  0  0  0  0  0
    9.3868   -5.7083    0.0000 C   0  0  0  0  0  0  0  0  0  0  0  0
   10.3554   -4.2724    0.0000 C   0  0  0  0  0  0  0  0  0  0  0  0
   10.2159   -6.2675    0.0000 C   0  0  0  0  0  0  0  0  0  0  0  0
   11.1844   -4.8316    0.0000 C   0  0  0  0  0  0  0  0  0  0  0  0
   11.1147   -5.8292    0.0000 C   0  0  0  0  0  0  0  0  0  0  0  0
    7.2916    3.0691    0.0000 H   0  0  0  0  0  0  0  0  0  0  0  0
   10.8744    1.5227    0.0000 H   0  0  0  0  0  0  0  0  0  0  0  0
    6.1235    2.3721    0.0000 H   0  0  0  0  0  0  0  0  0  0  0  0
   11.1340    4.6338    0.0000 H   0  0  0  0  0  0  0  0  0  0  0  0
    8.7391   -1.9554    0.0000 H   0  0  0  0  0  0  0  0  0  0  0  0
   10.2155   -2.0580    0.0000 H   0  0  0  0  0  0  0  0  0  0  0  0
   11.2246   -0.9519    0.0000 H   0  0  0  0  0  0  0  0  0  0  0  0
    4.6765    1.5779    0.0000 H   0  0  0  0  0  0  0  0  0  0  0  0
    9.4966    5.1583    0.0000 H   0  0  0  0  0  0  0  0  0  0  0  0
    4.0994    2.5955    0.0000 H   0  0  0  0  0  0  0  0  0  0  0  0
   10.1490   -3.0568    0.0000 H   0  0  0  0  0  0  0  0  0  0  0  0
   14.5986    2.2159    0.0000 H   0  0  0  0  0  0  0  0  0  0  0  0
   13.0164    4.0960    0.0000 H   0  0  0  0  0  0  0  0  0  0  0  0
    4.4879    1.4698    0.0000 H   0  0  0  0  0  0  0  0  0  0  0  0
   10.3060    4.8222    0.0000 H   0  0  0  0  0  0  0  0  0  0  0  0
    5.6418   -1.0880    0.0000 H   0  0  0  0  0  0  0  0  0  0  0  0
    5.6276    4.8534    0.0000 H   0  0  0  0  0  0  0  0  0  0  0  0
   13.5773   -0.4756    0.0000 H   0  0  0  0  0  0  0  0  0  0  0  0
    6.2338   -3.8521    0.0000 H   0  0  0  0  0  0  0  0  0  0  0  0
    6.5727   -4.5749    0.0000 H   0  0  0  0  0  0  0  0  0  0  0  0
    8.5831   -4.7700    0.0000 H   0  0  0  0  0  0  0  0  0  0  0  0
    7.1297   -4.8710    0.0000 H   0  0  0  0  0  0  0  0  0  0  0  0
    5.6596   -1.0663    0.0000 H   0  0  0  0  0  0  0  0  0  0  0  0
   10.8942   -3.0572    0.0000 H   0  0  0  0  0  0  0  0  0  0  0  0
   12.4362   -0.7130    0.0000 H   0  0  0  0  0  0  0  0  0  0  0  0
   10.7253    6.3870    0.0000 H   0  0  0  0  0  0  0  0  0  0  0  0
    4.1651   -1.7542    0.0000 H   0  0  0  0  0  0  0  0  0  0  0  0
    7.3092    4.7921    0.0000 H   0  0  0  0  0  0  0  0  0  0  0  0
   11.8187   -0.7158    0.0000 H   0  0  0  0  0  0  0  0  0  0  0  0
    8.3711   -0.4157    0.0000 H   0  0  0  0  0  0  0  0  0  0  0  0
   13.7897   -1.6033    0.0000 H   0  0  0  0  0  0  0  0  0  0  0  0
    3.9504    4.9908    0.0000 H   0  0  0  0  0  0  0  0  0  0  0  0
   15.7075    0.8299    0.0000 H   0  0  0  0  0  0  0  0  0  0  0  0
    7.0528   -5.8691    0.0000 H   0  0  0  0  0  0  0  0  0  0  0  0
    5.1525   -3.4655    0.0000 H   0  0  0  0  0  0  0  0  0  0  0  0
   13.9632    6.3580    0.0000 H   0  0  0  0  0  0  0  0  0  0  0  0
    2.1375    0.7705    0.0000 H   0  0  0  0  0  0  0  0  0  0  0  0
    8.8296   -5.9801    0.0000 H   0  0  0  0  0  0  0  0  0  0  0  0
   10.3986   -3.6539    0.0000 H   0  0  0  0  0  0  0  0  0  0  0  0
   11.9501    7.6118    0.0000 H   0  0  0  0  0  0  0  0  0  0  0  0
    2.0000   -0.6027    0.0000 H   0  0  0  0  0  0  0  0  0  0  0  0
   12.7435   -4.6676    0.0000 H   0  0  0  0  0  0  0  0  0  0  0  0
   14.5669   -3.1512    0.0000 H   0  0  0  0  0  0  0  0  0  0  0  0
   11.7417   -4.5598    0.0000 H   0  0  0  0  0  0  0  0  0  0  0  0
   10.6601   -7.6118    0.0000 H   0  0  0  0  0  0  0  0  0  0  0  0
   11.9004   -7.0068    0.0000 H   0  0  0  0  0  0  0  0  0  0  0  0
  1 30  1  0  0  0  0
  1 34  1  0  0  0  0
  2 33  1  0  0  0  0
  2 35  1  0  0  0  0
  3 37  1  0  0  0  0
  3 41  1  0  0  0  0
  4 35  1  0  0  0  0
  4 43  1  0  0  0  0
  5 34  1  0  0  0  0
  5 44  1  0  0  0  0
 29  6  1  6  0  0  0
  6 92  1  0  0  0  0
 32  7  1  1  0  0  0
  7 93  1  0  0  0  0
 38  8  1  6  0  0  0
  8 95  1  0  0  0  0
  9 50  1  0  0  0  0
  9 64  1  0  0  0  0
 10 47  1  0  0  0  0
 10112  1  0  0  0  0
 11 48  1  0  0  0  0
 11113  1  0  0  0  0
 12 51  1  0  0  0  0
 12114  1  0  0  0  0
 13 62  1  0  0  0  0
 13116  1  0  0  0  0
 14 63  1  0  0  0  0
 14117  1  0  0  0  0
 65 15  1  6  0  0  0
 15118  1  0  0  0  0
 16 69  1  0  0  0  0
 16119  1  0  0  0  0
 17 70  1  0  0  0  0
 17120  1  0  0  0  0
 18 71  1  0  0  0  0
 18121  1  0  0  0  0
 19 74  1  0  0  0  0
 19124  1  0  0  0  0
 20 75  1  0  0  0  0
 20125  1  0  0  0  0
 21 76  1  0  0  0  0
 21126  1  0  0  0  0
 22 79  1  0  0  0  0
 22127  1  0  0  0  0
 23 82  1  0  0  0  0
 23129  1  0  0  0  0
 24 84  1  0  0  0  0
 24130  1  0  0  0  0
 25 27  1  0  0  0  0
 25 29  1  0  0  0  0
 25 39  1  0  0  0  0
 25 85  1  1  0  0  0
 26 28  1  0  0  0  0
 26 32  1  0  0  0  0
 26 40  1  0  0  0  0
 26 86  1  1  0  0  0
 27 30  2  0  0  0  0
 27 33  1  0  0  0  0
 28 30  1  0  0  0  0
 28 37  2  0  0  0  0
 29 35  1  0  0  0  0
 29 87  1  0  0  0  0
 31 33  2  0  0  0  0
 31 36  1  0  0  0  0
 31 37  1  0  0  0  0
 32 34  1  0  0  0  0
 32 88  1  0  0  0  0
 34 45  1  6  0  0  0
 35 46  1  1  0  0  0
 36 38  1  0  0  0  0
 36 42  1  0  0  0  0
 36 89  1  6  0  0  0
 38 41  1  0  0  0  0
 38 90  1  0  0  0  0
 39 43  1  0  0  0  0
 39 47  2  0  0  0  0
 40 44  1  0  0  0  0
 40 48  2  0  0  0  0
 41 49  1  6  0  0  0
 41 91  1  0  0  0  0
 42 50  1  0  0  0  0
 42 51  2  0  0  0  0
 43 52  2  0  0  0  0
 44 53  2  0  0  0  0
 45 55  2  0  0  0  0
 45 57  1  0  0  0  0
 46 56  2  0  0  0  0
 46 58  1  0  0  0  0
 47 59  1  0  0  0  0
 48 60  1  0  0  0  0
 49 67  2  0  0  0  0
 49 68  1  0  0  0  0
 50 54  2  0  0  0  0
 51 66  1  0  0  0  0
 52 62  1  0  0  0  0
 52 94  1  0  0  0  0
 53 63  1  0  0  0  0
 53 96  1  0  0  0  0
 54 61  1  0  0  0  0
 54 69  1  0  0  0  0
 55 70  1  0  0  0  0
 55 97  1  0  0  0  0
 56 71  1  0  0  0  0
 56 98  1  0  0  0  0
 57 72  2  0  0  0  0
 57 99  1  0  0  0  0
 58 73  2  0  0  0  0
 58100  1  0  0  0  0
 59 62  2  0  0  0  0
 59101  1  0  0  0  0
 60 63  2  0  0  0  0
 60102  1  0  0  0  0
 61 65  1  0  0  0  0
 61103  1  0  0  0  0
 61104  1  0  0  0  0
 64 65  1  0  0  0  0
 64 77  1  6  0  0  0
 64105  1  0  0  0  0
 65106  1  0  0  0  0
 66 69  2  0  0  0  0
 66107  1  0  0  0  0
 67 76  1  0  0  0  0
 67108  1  0  0  0  0
 68 78  2  0  0  0  0
 68109  1  0  0  0  0
 70 74  2  0  0  0  0
 71 75  2  0  0  0  0
 72 74  1  0  0  0  0
 72110  1  0  0  0  0
 73 75  1  0  0  0  0
 73111  1  0  0  0  0
 76 79  2  0  0  0  0
 77 80  2  0  0  0  0
 77 81  1  0  0  0  0
 78 79  1  0  0  0  0
 78115  1  0  0  0  0
 80 82  1  0  0  0  0
 80122  1  0  0  0  0
 81 83  2  0  0  0  0
 81123  1  0  0  0  0
 82 84  2  0  0  0  0
 83 84  1  0  0  0  0
 83128  1  0  0  0  0
M  END
> <PUBCHEM_COMPOUND_CID>
16145850

> <PUBCHEM_COMPOUND_CANONICALIZED>
1

> <PUBCHEM_CACTVS_COMPLEXITY>
2350

> <PUBCHEM_CACTVS_HBOND_ACCEPTOR>
24

> <PUBCHEM_CACTVS_HBOND_DONOR>
18

> <PUBCHEM_CACTVS_ROTATABLE_BOND>
5

> <PUBCHEM_CACTVS_SUBSKEYS>
AAADcfB8PgAAAAAAAAAAAAAAAAAAAAAAAAA0aNGjQAASJACRVAAAGgAACAAADRSgmAIwDoAABgCAAiBCAAACCAAgIAAIiAAGiIgdNyKGMRqieCGlwBUPuAfA4PwOoAADCAAIQABAAAYQABCAAAAAAAAAAA==

> <PUBCHEM_IUPAC_OPENEYE_NAME>
(1R,5S,13R,17R,18R,19S,23S,31R,32R)-5,17,23-tris(3,4-dihydroxyphenyl)-19-[(2R,3R)-2-(3,4-dihydroxyphenyl)-3,5,7-trihydroxy-chroman-8-yl]-4,6,16,22,24-pentaoxaoctacyclo[21.7.1.15,13.02,21.03,14.07,12.015,20.025,30]dotriaconta-2,7,9,11,14,20,25,27,29-nonaene-9,11,18,27,29,31,32-heptol

> <PUBCHEM_IUPAC_CAS_NAME>
(1R,5S,13R,17R,18R,19S,23S,31R,32R)-5,17,23-tris(3,4-dihydroxyphenyl)-19-[(2R,3R)-2-(3,4-dihydroxyphenyl)-3,5,7-trihydroxy-3,4-dihydro-2H-1-benzopyran-8-yl]-4,6,16,22,24-pentaoxaoctacyclo[21.7.1.15,13.02,21.03,14.07,12.015,20.025,30]dotriaconta-2,7,9,11,14,20,25,27,29-nonaene-9,11,18,27,29,31,32-heptol

> <PUBCHEM_IUPAC_NAME_MARKUP>
(1<I>R</I>,5<I>S</I>,13<I>R</I>,17<I>R</I>,18<I>R</I>,19<I>S</I>,23<I>S</I>,31<I>R</I>,32<I>R</I>)-5,17,23-tris(3,4-dihydroxyphenyl)-19-[(2<I>R</I>,3<I>R</I>)-2-(3,4-dihydroxyphenyl)-3,5,7-trihydroxy-3,4-dihydro-2<I>H</I>-chromen-8-yl]-4,6,16,22,24-pentaoxaoctacyclo[21.7.1.1<SUP>5,13</SUP>.0<SUP>2,21</SUP>.0<SUP>3,14</SUP>.0<SUP>7,12</SUP>.0<SUP>15,20</SUP>.0<SUP>25,30</SUP>]dotriaconta-2,7,9,11,14,20,25,27,29-nonaene-9,11,18,27,29,31,32-heptol

> <PUBCHEM_IUPAC_NAME>
(1R,5S,13R,17R,18R,19S,23S,31R,32R)-5,17,23-tris(3,4-dihydroxyphenyl)-19-[(2R,3R)-2-(3,4-dihydroxyphenyl)-3,5,7-trihydroxy-3,4-dihydro-2H-chromen-8-yl]-4,6,16,22,24-pentaoxaoctacyclo[21.7.1.15,13.02,21.03,14.07,12.015,20.025,30]dotriaconta-2,7,9,11,14,20,25,27,29-nonaene-9,11,18,27,29,31,32-heptol

> <PUBCHEM_IUPAC_SYSTEMATIC_NAME>
(1R,5S,13R,17R,18R,19S,23S,31R,32R)-5,17,23-tris[3,4-bis(oxidanyl)phenyl]-19-[(2R,3R)-2-[3,4-bis(oxidanyl)phenyl]-3,5,7-tris(oxidanyl)-3,4-dihydro-2H-chromen-8-yl]-4,6,16,22,24-pentaoxaoctacyclo[21.7.1.15,13.02,21.03,14.07,12.015,20.025,30]dotriaconta-2,7,9,11,14,20,25,27,29-nonaene-9,11,18,27,29,31,32-heptol

> <PUBCHEM_IUPAC_TRADITIONAL_NAME>
(1R,5S,13R,17R,18R,19S,23S,31R,32R)-5,17,23-tris(3,4-dihydroxyphenyl)-19-[(2R,3R)-2-(3,4-dihydroxyphenyl)-3,5,7-trihydroxy-chroman-8-yl]-4,6,16,22,24-pentaoxaoctacyclo[21.7.1.15,13.02,21.03,14.07,12.015,20.025,30]dotriaconta-2,7,9,11,14,20,25,27,29-nonaene-9,11,18,27,29,31,32-heptol

> <PUBCHEM_IUPAC_INCHI>
InChI=1S/C60H46O24/c61-23-13-35(72)41-39(15-23)81-59(21-3-7-28(65)33(70)11-21)57(77)45(41)48-54-47(55-49(56(48)84-59)46-42-36(73)14-24(62)16-40(42)82-60(83-55,58(46)78)22-4-8-29(66)34(71)12-22)44(50(76)52(80-54)20-2-6-27(64)32(69)10-20)43-37(74)18-30(67)25-17-38(75)51(79-53(25)43)19-1-5-26(63)31(68)9-19/h1-16,18,38,44-46,50-52,57-58,61-78H,17H2/t38-,44+,45-,46-,50-,51-,52-,57-,58-,59+,60+/m1/s1

> <PUBCHEM_IUPAC_INCHIKEY>
ZEYQBFDUFXKGFS-NEWFUCEESA-N

> <PUBCHEM_XLOGP3_AA>
4.3

> <PUBCHEM_EXACT_MASS>
1150.23790233

> <PUBCHEM_MOLECULAR_FORMULA>
C60H46O24

> <PUBCHEM_MOLECULAR_WEIGHT>
1151.0

> <PUBCHEM_OPENEYE_CAN_SMILES>
C1C(C(OC2=C1C(=CC(=C2C3C(C(OC4=C5C6C(C(OC7=CC(=CC(=C67)O)O)(OC5=C8C9C(C(OC1=CC(=CC(=C91)O)O)(OC8=C34)C1=CC(=C(C=C1)O)O)O)C1=CC(=C(C=C1)O)O)O)C1=CC(=C(C=C1)O)O)O)O)O)C1=CC(=C(C=C1)O)O)O

> <PUBCHEM_OPENEYE_ISO_SMILES>
C1[C@H]([C@H](OC2=C1C(=CC(=C2[C@@H]3[C@H]([C@H](OC4=C5[C@@H]6[C@H]([C@@](OC7=CC(=CC(=C67)O)O)(OC5=C8[C@@H]9[C@H]([C@@](OC1=CC(=CC(=C91)O)O)(OC8=C34)C1=CC(=C(C=C1)O)O)O)C1=CC(=C(C=C1)O)O)O)C1=CC(=C(C=C1)O)O)O)O)O)C1=CC(=C(C=C1)O)O)O

> <PUBCHEM_CACTVS_TPSA>
420

> <PUBCHEM_MONOISOTOPIC_WEIGHT>
1150.23790233

> <PUBCHEM_TOTAL_CHARGE>
0

> <PUBCHEM_HEAVY_ATOM_COUNT>
84

> <PUBCHEM_ATOM_DEF_STEREO_COUNT>
11

> <PUBCHEM_ATOM_UDEF_STEREO_COUNT>
0

> <PUBCHEM_BOND_DEF_STEREO_COUNT>
0

> <PUBCHEM_BOND_UDEF_STEREO_COUNT>
0

> <PUBCHEM_ISOTOPIC_ATOM_COUNT>
0

> <PUBCHEM_COMPONENT_COUNT>
1

> <PUBCHEM_CACTVS_TAUTO_COUNT>
-1

> <PUBCHEM_COORDINATE_TYPE>
1
5
255

> <PUBCHEM_BONDANNOTATIONS>
65  15  6
25  85  5
26  86  5
27  30  8
27  33  8
28  30  8
28  37  8
31  33  8
31  37  8
34  45  6
35  46  5
36  89  6
39  43  8
39  47  8
40  44  8
40  48  8
41  49  6
42  50  8
42  51  8
43  52  8
44  53  8
45  55  8
45  57  8
46  56  8
46  58  8
47  59  8
48  60  8
49  67  8
49  68  8
50  54  8
51  66  8
52  62  8
53  63  8
54  69  8
55  70  8
56  71  8
57  72  8
58  73  8
59  62  8
29  6  6
60  63  8
64  77  6
66  69  8
67  76  8
68  78  8
32  7  5
70  74  8
71  75  8
72  74  8
73  75  8
76  79  8
77  80  8
77  81  8
78  79  8
38  8  6
80  82  8
81  83  8
82  84  8
83  84  8

$$$$
