45359583
  -OEChem-02092319252D

 66 72  0     1  0  0  0  0  0999 V2000
    8.3789    0.8644    0.0000 O   0  0  0  0  0  0  0  0  0  0  0  0
   11.8438    0.9779    0.0000 O   0  0  0  0  0  0  0  0  0  0  0  0
    9.1755    3.0242    0.0000 O   0  0  0  0  0  0  0  0  0  0  0  0
    6.0970   -2.0380    0.0000 O   0  0  0  0  0  0  0  0  0  0  0  0
    9.7111   -2.2457    0.0000 O   0  0  0  0  0  0  0  0  0  0  0  0
    6.8466   -4.7243    0.0000 O   0  0  0  0  0  0  0  0  0  0  0  0
   10.7877   -2.2365    0.0000 O   0  0  0  0  0  0  0  0  0  0  0  0
   14.2860   -1.6962    0.0000 O   0  0  0  0  0  0  0  0  0  0  0  0
   12.8616    3.6250    0.0000 O   0  0  0  0  0  0  0  0  0  0  0  0
   11.4474    5.0393    0.0000 O   0  0  0  0  0  0  0  0  0  0  0  0
    2.5583   -2.8648    0.0000 O   0  0  0  0  0  0  0  0  0  0  0  0
    2.4111   -4.8594    0.0000 O   0  0  0  0  0  0  0  0  0  0  0  0
   10.1533    0.2096    0.0000 C   0  0  1  0  0  0  0  0  0  0  0  0
    9.6755    2.1582    0.0000 C   0  0  2  0  0  0  0  0  0  0  0  0
   10.4121    1.1756    0.0000 C   0  0  2  0  0  0  0  0  0  0  0  0
    8.9323   -0.6560    0.0000 C   0  0  0  0  0  0  0  0  0  0  0  0
   11.4250   -0.5850    0.0000 C   0  0  0  0  0  0  0  0  0  0  0  0
    8.1032   -0.0968    0.0000 C   0  0  0  0  0  0  0  0  0  0  0  0
   12.2021    0.0443    0.0000 C   0  0  0  0  0  0  0  0  0  0  0  0
    8.8756   -1.6961    0.0000 C   0  0  0  0  0  0  0  0  0  0  0  0
   10.6709    2.1415    0.0000 C   0  0  0  0  0  0  0  0  0  0  0  0
    7.9430   -2.1599    0.0000 C   0  0  0  0  0  0  0  0  0  0  0  0
    7.8840   -3.2433    0.0000 C   0  0  0  0  0  0  0  0  0  0  0  0
    7.0794   -1.5775    0.0000 C   0  0  0  0  0  0  0  0  0  0  0  0
    7.1601   -0.5390    0.0000 C   0  0  0  0  0  0  0  0  0  0  0  0
    6.9125   -3.7265    0.0000 C   0  0  2  0  0  0  0  0  0  0  0  0
    6.0130   -3.1197    0.0000 C   0  0  1  0  0  0  0  0  0  0  0  0
   11.5721   -1.6162    0.0000 C   0  0  0  0  0  0  0  0  0  0  0  0
   13.1802   -0.3139    0.0000 C   0  0  0  0  0  0  0  0  0  0  0  0
   11.6369    2.4003    0.0000 C   0  0  0  0  0  0  0  0  0  0  0  0
    9.9638    2.8486    0.0000 C   0  0  0  0  0  0  0  0  0  0  0  0
   12.5416   -1.9970    0.0000 C   0  0  0  0  0  0  0  0  0  0  0  0
   13.3511   -1.3414    0.0000 C   0  0  0  0  0  0  0  0  0  0  0  0
    5.1125   -3.5546    0.0000 C   0  0  0  0  0  0  0  0  0  0  0  0
   11.8957    3.3662    0.0000 C   0  0  0  0  0  0  0  0  0  0  0  0
   10.2227    3.8145    0.0000 C   0  0  0  0  0  0  0  0  0  0  0  0
   11.1886    4.0733    0.0000 C   0  0  0  0  0  0  0  0  0  0  0  0
    4.2857   -2.9923    0.0000 C   0  0  0  0  0  0  0  0  0  0  0  0
    5.0389   -4.5519    0.0000 C   0  0  0  0  0  0  0  0  0  0  0  0
    3.3852   -3.4272    0.0000 C   0  0  0  0  0  0  0  0  0  0  0  0
    4.1384   -4.9868    0.0000 C   0  0  0  0  0  0  0  0  0  0  0  0
    3.3116   -4.4244    0.0000 C   0  0  0  0  0  0  0  0  0  0  0  0
    9.9333   -0.6114    0.0000 H   0  0  0  0  0  0  0  0  0  0  0  0
   10.1929    2.4997    0.0000 H   0  0  0  0  0  0  0  0  0  0  0  0
    8.0610   -3.8375    0.0000 H   0  0  0  0  0  0  0  0  0  0  0  0
    8.4997   -3.1706    0.0000 H   0  0  0  0  0  0  0  0  0  0  0  0
    6.6501   -0.1863    0.0000 H   0  0  0  0  0  0  0  0  0  0  0  0
    6.3558   -3.9993    0.0000 H   0  0  0  0  0  0  0  0  0  0  0  0
    5.9686   -3.7382    0.0000 H   0  0  0  0  0  0  0  0  0  0  0  0
    8.5555    3.0242    0.0000 H   0  0  0  0  0  0  0  0  0  0  0  0
   13.6575    0.0818    0.0000 H   0  0  0  0  0  0  0  0  0  0  0  0
   12.0753    1.9619    0.0000 H   0  0  0  0  0  0  0  0  0  0  0  0
    9.3650    2.6881    0.0000 H   0  0  0  0  0  0  0  0  0  0  0  0
   12.6362   -2.6097    0.0000 H   0  0  0  0  0  0  0  0  0  0  0  0
    9.6750   -2.8646    0.0000 H   0  0  0  0  0  0  0  0  0  0  0  0
    9.7842    4.2529    0.0000 H   0  0  0  0  0  0  0  0  0  0  0  0
    7.3619   -5.0690    0.0000 H   0  0  0  0  0  0  0  0  0  0  0  0
   10.8776   -2.8499    0.0000 H   0  0  0  0  0  0  0  0  0  0  0  0
    4.3313   -2.3739    0.0000 H   0  0  0  0  0  0  0  0  0  0  0  0
    5.5516   -4.9006    0.0000 H   0  0  0  0  0  0  0  0  0  0  0  0
   14.7664   -1.3042    0.0000 H   0  0  0  0  0  0  0  0  0  0  0  0
    4.0928   -5.6052    0.0000 H   0  0  0  0  0  0  0  0  0  0  0  0
   13.0221    4.2239    0.0000 H   0  0  0  0  0  0  0  0  0  0  0  0
   11.0090    5.4777    0.0000 H   0  0  0  0  0  0  0  0  0  0  0  0
    2.0000   -3.1344    0.0000 H   0  0  0  0  0  0  0  0  0  0  0  0
    2.3655   -5.4777    0.0000 H   0  0  0  0  0  0  0  0  0  0  0  0
  1 15  1  0  0  0  0
  1 18  1  0  0  0  0
  2 15  1  0  0  0  0
  2 19  1  0  0  0  0
 14  3  1  1  0  0  0
  3 50  1  0  0  0  0
  4 24  1  0  0  0  0
  4 27  1  0  0  0  0
  5 20  1  0  0  0  0
  5 55  1  0  0  0  0
 26  6  1  1  0  0  0
  6 57  1  0  0  0  0
  7 28  1  0  0  0  0
  7 58  1  0  0  0  0
  8 33  1  0  0  0  0
  8 61  1  0  0  0  0
  9 35  1  0  0  0  0
  9 63  1  0  0  0  0
 10 37  1  0  0  0  0
 10 64  1  0  0  0  0
 11 40  1  0  0  0  0
 11 65  1  0  0  0  0
 12 42  1  0  0  0  0
 12 66  1  0  0  0  0
 13 14  1  0  0  0  0
 13 16  1  0  0  0  0
 13 17  1  0  0  0  0
 13 43  1  1  0  0  0
 14 15  1  0  0  0  0
 14 44  1  0  0  0  0
 15 21  1  6  0  0  0
 16 18  2  0  0  0  0
 16 20  1  0  0  0  0
 17 19  1  0  0  0  0
 17 28  2  0  0  0  0
 18 25  1  0  0  0  0
 19 29  2  0  0  0  0
 20 22  2  0  0  0  0
 21 30  2  0  0  0  0
 21 31  1  0  0  0  0
 22 23  1  0  0  0  0
 22 24  1  0  0  0  0
 23 26  1  0  0  0  0
 23 45  1  0  0  0  0
 23 46  1  0  0  0  0
 24 25  2  0  0  0  0
 25 47  1  0  0  0  0
 26 27  1  0  0  0  0
 26 48  1  0  0  0  0
 27 34  1  1  0  0  0
 27 49  1  0  0  0  0
 28 32  1  0  0  0  0
 29 33  1  0  0  0  0
 29 51  1  0  0  0  0
 30 35  1  0  0  0  0
 30 52  1  0  0  0  0
 31 36  2  0  0  0  0
 31 53  1  0  0  0  0
 32 33  2  0  0  0  0
 32 54  1  0  0  0  0
 34 38  2  0  0  0  0
 34 39  1  0  0  0  0
 35 37  2  0  0  0  0
 36 37  1  0  0  0  0
 36 56  1  0  0  0  0
 38 40  1  0  0  0  0
 38 59  1  0  0  0  0
 39 41  2  0  0  0  0
 39 60  1  0  0  0  0
 40 42  2  0  0  0  0
 41 42  1  0  0  0  0
 41 62  1  0  0  0  0
M  END
> <PUBCHEM_COMPOUND_CID>
45359583

> <PUBCHEM_COMPOUND_CANONICALIZED>
1

> <PUBCHEM_CACTVS_COMPLEXITY>
986

> <PUBCHEM_CACTVS_HBOND_ACCEPTOR>
12

> <PUBCHEM_CACTVS_HBOND_DONOR>
9

> <PUBCHEM_CACTVS_ROTATABLE_BOND>
2

> <PUBCHEM_CACTVS_SUBSKEYS>
AAADceB4PAAAAAAAAAAAAAAAAAAAAAAAAAA0aNGCAAASAACRVAAAGgAACAAADRSgmAIwDoAABgCAAiBCAAACCAAgIAAIiAAGiIgdNyKGMRqieCGlwBUPuAfA4PwOoAADCAAIQABAAAYQABCAAAAAAAAAAA==

> <PUBCHEM_IUPAC_OPENEYE_NAME>
(1R,6R,7R,13S,21R)-7,13-bis(3,4-dihydroxyphenyl)-8,12,14-trioxapentacyclo[11.7.1.02,11.04,9.015,20]henicosa-2(11),3,9,15,17,19-hexaene-3,6,17,19,21-pentol

> <PUBCHEM_IUPAC_CAS_NAME>
(1R,6R,7R,13S,21R)-7,13-bis(3,4-dihydroxyphenyl)-8,12,14-trioxapentacyclo[11.7.1.02,11.04,9.015,20]heneicosa-2(11),3,9,15,17,19-hexaene-3,6,17,19,21-pentol

> <PUBCHEM_IUPAC_NAME_MARKUP>
(1<I>R</I>,6<I>R</I>,7<I>R</I>,13<I>S</I>,21<I>R</I>)-7,13-bis(3,4-dihydroxyphenyl)-8,12,14-trioxapentacyclo[11.7.1.0<SUP>2,11</SUP>.0<SUP>4,9</SUP>.0<SUP>15,20</SUP>]henicosa-2(11),3,9,15,17,19-hexaene-3,6,17,19,21-pentol

> <PUBCHEM_IUPAC_NAME>
(1R,6R,7R,13S,21R)-7,13-bis(3,4-dihydroxyphenyl)-8,12,14-trioxapentacyclo[11.7.1.02,11.04,9.015,20]henicosa-2(11),3,9,15,17,19-hexaene-3,6,17,19,21-pentol

> <PUBCHEM_IUPAC_SYSTEMATIC_NAME>
(1R,6R,7R,13S,21R)-7,13-bis[3,4-bis(oxidanyl)phenyl]-8,12,14-trioxapentacyclo[11.7.1.02,11.04,9.015,20]henicosa-2(11),3,9,15,17,19-hexaene-3,6,17,19,21-pentol

> <PUBCHEM_IUPAC_TRADITIONAL_NAME>
(1R,6R,7R,13S,21R)-7,13-bis(3,4-dihydroxyphenyl)-8,12,14-trioxapentacyclo[11.7.1.02,11.04,9.015,20]heneicosa-2(11),3,9,15,17,19-hexaene-3,6,17,19,21-pentol

> <PUBCHEM_IUPAC_INCHI>
InChI=1S/C30H24O12/c31-13-7-19(36)24-22(8-13)41-30(12-2-4-16(33)18(35)6-12)29(39)26(24)25-23(42-30)10-21-14(27(25)38)9-20(37)28(40-21)11-1-3-15(32)17(34)5-11/h1-8,10,20,26,28-29,31-39H,9H2/t20-,26-,28-,29-,30+/m1/s1

> <PUBCHEM_IUPAC_INCHIKEY>
BEPYKTSNKZMROV-FEEPWOQDSA-N

> <PUBCHEM_XLOGP3>
1.3

> <PUBCHEM_EXACT_MASS>
576.12677620

> <PUBCHEM_MOLECULAR_FORMULA>
C30H24O12

> <PUBCHEM_MOLECULAR_WEIGHT>
576.5

> <PUBCHEM_OPENEYE_CAN_SMILES>
C1C(C(OC2=CC3=C(C4C(C(O3)(OC5=CC(=CC(=C45)O)O)C6=CC(=C(C=C6)O)O)O)C(=C21)O)C7=CC(=C(C=C7)O)O)O

> <PUBCHEM_OPENEYE_ISO_SMILES>
C1[C@H]([C@H](OC2=CC3=C([C@@H]4[C@H]([C@](O3)(OC5=CC(=CC(=C45)O)O)C6=CC(=C(C=C6)O)O)O)C(=C21)O)C7=CC(=C(C=C7)O)O)O

> <PUBCHEM_CACTVS_TPSA>
210

> <PUBCHEM_MONOISOTOPIC_WEIGHT>
576.12677620

> <PUBCHEM_TOTAL_CHARGE>
0

> <PUBCHEM_HEAVY_ATOM_COUNT>
42

> <PUBCHEM_ATOM_DEF_STEREO_COUNT>
5

> <PUBCHEM_ATOM_UDEF_STEREO_COUNT>
0

> <PUBCHEM_BOND_DEF_STEREO_COUNT>
0

> <PUBCHEM_BOND_UDEF_STEREO_COUNT>
0

> <PUBCHEM_ISOTOPIC_ATOM_COUNT>
0

> <PUBCHEM_COMPONENT_COUNT>
1

> <PUBCHEM_CACTVS_TAUTO_COUNT>
-1

> <PUBCHEM_COORDINATE_TYPE>
1
5
255

> <PUBCHEM_BONDANNOTATIONS>
13  43  5
15  21  6
16  18  8
16  20  8
17  19  8
17  28  8
18  25  8
19  29  8
20  22  8
21  30  8
21  31  8
22  24  8
24  25  8
27  34  5
28  32  8
29  33  8
14  3  5
30  35  8
31  36  8
32  33  8
34  38  8
34  39  8
35  37  8
36  37  8
38  40  8
39  41  8
40  42  8
41  42  8
26  6  5

$$$$
