642709
  -OEChem-02132300352D

 34 34  0     1  0  0  0  0  0999 V2000
    3.6750   -1.5587    0.0000 O   0  0  0  0  0  0  0  0  0  0  0  0
    2.0570   -1.5587    0.0000 O   0  0  0  0  0  0  0  0  0  0  0  0
    3.5471    1.1149    0.0000 O   0  0  0  0  0  0  0  0  0  0  0  0
    3.3660   -0.6076    0.0000 C   0  0  1  0  0  0  0  0  0  0  0  0
    2.3660   -0.6076    0.0000 C   0  0  0  0  0  0  0  0  0  0  0  0
    3.9538    0.2014    0.0000 C   0  0  0  0  0  0  0  0  0  0  0  0
    2.8660   -3.1465    0.0000 C   0  0  0  0  0  0  0  0  0  0  0  0
    3.7281    2.8375    0.0000 C   0  0  0  0  0  0  0  0  0  0  0  0
    5.1294    1.8194    0.0000 C   0  0  0  0  0  0  0  0  0  0  0  0
    2.0000   -3.6465    0.0000 C   0  0  0  0  0  0  0  0  0  0  0  0
    4.3159    3.6465    0.0000 C   0  0  0  0  0  0  0  0  0  0  0  0
    5.7172    2.6284    0.0000 C   0  0  0  0  0  0  0  0  0  0  0  0
    2.8660   -2.1465    0.0000 B   0  0  0  0  0  0  0  0  0  0  0  0
    4.1349    1.9239    0.0000 B   0  0  0  0  0  0  0  0  0  0  0  0
    3.9784   -0.7046    0.0000 H   0  0  0  0  0  0  0  0  0  0  0  0
    2.4308    0.0090    0.0000 H   0  0  0  0  0  0  0  0  0  0  0  0
    1.7596   -0.4787    0.0000 H   0  0  0  0  0  0  0  0  0  0  0  0
    4.3845   -0.2446    0.0000 H   0  0  0  0  0  0  0  0  0  0  0  0
    4.4678    0.5481    0.0000 H   0  0  0  0  0  0  0  0  0  0  0  0
    3.0781   -3.7291    0.0000 H   0  0  0  0  0  0  0  0  0  0  0  0
    3.4766   -3.0388    0.0000 H   0  0  0  0  0  0  0  0  0  0  0  0
    3.2974    3.2835    0.0000 H   0  0  0  0  0  0  0  0  0  0  0  0
    3.2141    2.4908    0.0000 H   0  0  0  0  0  0  0  0  0  0  0  0
    4.9585    1.2234    0.0000 H   0  0  0  0  0  0  0  0  0  0  0  0
    5.6866    1.5476    0.0000 H   0  0  0  0  0  0  0  0  0  0  0  0
    1.6900   -3.1096    0.0000 H   0  0  0  0  0  0  0  0  0  0  0  0
    1.4631   -3.9565    0.0000 H   0  0  0  0  0  0  0  0  0  0  0  0
    2.3100   -4.1834    0.0000 H   0  0  0  0  0  0  0  0  0  0  0  0
    4.8175    3.2821    0.0000 H   0  0  0  0  0  0  0  0  0  0  0  0
    4.6803    4.1481    0.0000 H   0  0  0  0  0  0  0  0  0  0  0  0
    3.8143    4.0109    0.0000 H   0  0  0  0  0  0  0  0  0  0  0  0
    6.2188    2.2640    0.0000 H   0  0  0  0  0  0  0  0  0  0  0  0
    6.0816    3.1300    0.0000 H   0  0  0  0  0  0  0  0  0  0  0  0
    5.2156    2.9928    0.0000 H   0  0  0  0  0  0  0  0  0  0  0  0
  1  4  1  0  0  0  0
  1 13  1  0  0  0  0
  2  5  1  0  0  0  0
  2 13  1  0  0  0  0
  3  6  1  0  0  0  0
  3 14  1  0  0  0  0
  4  5  1  0  0  0  0
  4  6  1  1  0  0  0
  4 15  1  0  0  0  0
  5 16  1  0  0  0  0
  5 17  1  0  0  0  0
  6 18  1  0  0  0  0
  6 19  1  0  0  0  0
  7 10  1  0  0  0  0
  7 13  1  0  0  0  0
  7 20  1  0  0  0  0
  7 21  1  0  0  0  0
  8 11  1  0  0  0  0
  8 14  1  0  0  0  0
  8 22  1  0  0  0  0
  8 23  1  0  0  0  0
  9 12  1  0  0  0  0
  9 14  1  0  0  0  0
  9 24  1  0  0  0  0
  9 25  1  0  0  0  0
 10 26  1  0  0  0  0
 10 27  1  0  0  0  0
 10 28  1  0  0  0  0
 11 29  1  0  0  0  0
 11 30  1  0  0  0  0
 11 31  1  0  0  0  0
 12 32  1  0  0  0  0
 12 33  1  0  0  0  0
 12 34  1  0  0  0  0
M  END
> <PUBCHEM_COMPOUND_CID>
642709

> <PUBCHEM_COMPOUND_CANONICALIZED>
1

> <PUBCHEM_CACTVS_COMPLEXITY>
153

> <PUBCHEM_CACTVS_HBOND_ACCEPTOR>
3

> <PUBCHEM_CACTVS_HBOND_DONOR>
0

> <PUBCHEM_CACTVS_ROTATABLE_BOND>
6

> <PUBCHEM_CACTVS_SUBSKEYS>
AAADceNwMAAAAAAAAAAAAAAAAAAAASAAAAAAAAAAAAAAAAAAAAAoGgAAAAAACBSggAICAAAAAAAAAAAAAAAAAAAAAAAAAAAAAAABAAAAAAAAAAABAAAAAAAAAAAAAAAAAAAAAAAAAAAAAAAAAAAAAAAAAA==

> <PUBCHEM_IUPAC_OPENEYE_NAME>
diethyl-[[(4R)-2-ethyl-1,3,2-dioxaborolan-4-yl]methoxy]borane

> <PUBCHEM_IUPAC_CAS_NAME>
diethyl-[[(4R)-2-ethyl-1,3,2-dioxaborolan-4-yl]methoxy]borane

> <PUBCHEM_IUPAC_NAME_MARKUP>
diethyl-[[(4<I>R</I>)-2-ethyl-1,3,2-dioxaborolan-4-yl]methoxy]borane

> <PUBCHEM_IUPAC_NAME>
diethyl-[[(4R)-2-ethyl-1,3,2-dioxaborolan-4-yl]methoxy]borane

> <PUBCHEM_IUPAC_SYSTEMATIC_NAME>
diethyl-[[(4R)-2-ethyl-1,3,2-dioxaborolan-4-yl]methoxy]borane

> <PUBCHEM_IUPAC_TRADITIONAL_NAME>
diethyl-[[(4R)-2-ethyl-1,3,2-dioxaborolan-4-yl]methoxy]borane

> <PUBCHEM_IUPAC_INCHI>
InChI=1S/C9H20B2O3/c1-4-10(5-2)12-7-9-8-13-11(6-3)14-9/h9H,4-8H2,1-3H3/t9-/m1/s1

> <PUBCHEM_IUPAC_INCHIKEY>
BJKWUUGQERJMCC-SECBINFHSA-N

> <PUBCHEM_EXACT_MASS>
198.1598548

> <PUBCHEM_MOLECULAR_FORMULA>
C9H20B2O3

> <PUBCHEM_MOLECULAR_WEIGHT>
197.9

> <PUBCHEM_OPENEYE_CAN_SMILES>
B1(OCC(O1)COB(CC)CC)CC

> <PUBCHEM_OPENEYE_ISO_SMILES>
B1(OC[C@H](O1)COB(CC)CC)CC

> <PUBCHEM_CACTVS_TPSA>
27.7

> <PUBCHEM_MONOISOTOPIC_WEIGHT>
198.1598548

> <PUBCHEM_TOTAL_CHARGE>
0

> <PUBCHEM_HEAVY_ATOM_COUNT>
14

> <PUBCHEM_ATOM_DEF_STEREO_COUNT>
1

> <PUBCHEM_ATOM_UDEF_STEREO_COUNT>
0

> <PUBCHEM_BOND_DEF_STEREO_COUNT>
0

> <PUBCHEM_BOND_UDEF_STEREO_COUNT>
0

> <PUBCHEM_ISOTOPIC_ATOM_COUNT>
0

> <PUBCHEM_COMPONENT_COUNT>
1

> <PUBCHEM_CACTVS_TAUTO_COUNT>
-1

> <PUBCHEM_COORDINATE_TYPE>
1
5
255

> <PUBCHEM_BONDANNOTATIONS>
4  6  5

$$$$
